Version 4
SHEET 1 2880 1384
WIRE 912 -2128 -1136 -2128
WIRE 1568 -2080 1568 -2144
WIRE 912 -2064 912 -2128
WIRE 1936 -2064 1824 -2064
WIRE 2128 -2064 2016 -2064
WIRE 752 -1936 -592 -1936
WIRE 912 -1936 912 -1984
WIRE 912 -1936 832 -1936
WIRE 1888 -1888 1888 -1936
WIRE 912 -1856 912 -1936
WIRE 1600 -1856 1296 -1856
WIRE 1824 -1856 1824 -2064
WIRE 1824 -1856 1680 -1856
WIRE 1824 -1840 1824 -1856
WIRE 1856 -1840 1824 -1840
WIRE 2128 -1840 2128 -2064
WIRE 2128 -1840 2016 -1840
WIRE 1856 -1808 1824 -1808
WIRE 1856 -1776 1824 -1776
WIRE 2128 -1776 2016 -1776
WIRE 1568 -1744 1568 -2000
WIRE 1600 -1744 1568 -1744
WIRE 1824 -1744 1824 -1776
WIRE 1824 -1744 1680 -1744
WIRE 912 -1728 912 -1776
WIRE 912 -1728 0 -1728
WIRE 1888 -1696 1888 -1728
WIRE 1920 -1696 1920 -1728
WIRE 1920 -1696 1888 -1696
WIRE 1888 -1680 1888 -1696
WIRE 0 -1584 0 -1728
WIRE 736 -1584 0 -1584
WIRE 1104 -1584 928 -1584
WIRE 1296 -1584 1296 -1856
WIRE 1296 -1584 1184 -1584
WIRE 1824 -1568 1824 -1744
WIRE 1920 -1568 1824 -1568
WIRE 2128 -1568 2128 -1776
WIRE 2128 -1568 2000 -1568
WIRE 1296 -1552 1296 -1584
WIRE 1568 -1552 1568 -1744
WIRE 992 -1520 928 -1520
WIRE 736 -1456 0 -1456
WIRE 1088 -1456 928 -1456
WIRE 992 -1424 992 -1520
WIRE 1296 -1424 1296 -1472
WIRE 1296 -1424 992 -1424
WIRE 1568 -1424 1568 -1472
WIRE 1568 -1424 1296 -1424
WIRE 992 -1408 992 -1424
WIRE -592 -1344 -592 -1936
WIRE 448 -1344 -592 -1344
WIRE 704 -1280 640 -1280
WIRE 448 -1216 -592 -1216
WIRE 784 -1216 640 -1216
WIRE 704 -1152 704 -1280
WIRE -1136 -1120 -1136 -2128
WIRE 112 -1120 -1136 -1120
WIRE 352 -1056 304 -1056
WIRE 112 -992 -1136 -992
WIRE 480 -992 304 -992
WIRE -592 -928 -592 -1216
WIRE 352 -912 352 -1056
WIRE 0 -896 0 -1456
WIRE -1136 -816 -1136 -992
WIRE -592 -816 -592 -928
WIRE 0 -800 0 -896
WIRE -1136 -672 -1136 -736
WIRE -592 -672 -592 -736
WIRE 0 -656 0 -720
WIRE -1136 -480 -1136 -592
WIRE -592 -480 -592 -592
WIRE 0 -464 0 -576
WIRE -1136 -336 -1136 -400
WIRE -592 -336 -592 -400
WIRE 0 -320 0 -384
WIRE -1136 -192 -1136 -256
WIRE -592 -192 -592 -256
WIRE -592 -192 -1136 -192
WIRE 0 -192 0 -240
WIRE 0 -192 -592 -192
WIRE -1136 -144 -1136 -192
WIRE -1136 -16 -1136 -64
WIRE -720 176 -864 176
WIRE -96 176 -720 176
WIRE -864 240 -864 176
WIRE -464 256 -608 256
WIRE -96 256 -464 256
WIRE -464 304 -464 256
WIRE -864 400 -864 320
WIRE -720 400 -720 176
WIRE -608 400 -608 256
WIRE -464 416 -464 384
WIRE -288 416 -464 416
WIRE -144 416 -288 416
WIRE -864 464 -864 400
WIRE -464 480 -464 416
WIRE -288 480 -288 416
WIRE -864 592 -864 544
WIRE -720 592 -720 480
WIRE -720 592 -864 592
WIRE -608 592 -608 480
WIRE -608 592 -720 592
WIRE -464 592 -464 560
WIRE -464 592 -608 592
WIRE -288 592 -288 544
WIRE -288 592 -464 592
WIRE -464 608 -464 592
FLAG -464 608 0
FLAG -1136 -16 0
FLAG 1088 -1456 5V
FLAG 784 -1216 5V
FLAG 480 -992 5V
FLAG 352 -912 0
FLAG 704 -1152 0
FLAG 992 -1408 0
FLAG -96 256 5V
FLAG -96 176 Vref
FLAG -1136 -192 PWM50
FLAG -1136 -992 VL1
FLAG -592 -928 VL2
FLAG 0 -896 VL3
FLAG -864 400 Vref/2
FLAG 1888 -1680 0
FLAG 1888 -1936 5V
FLAG 1824 -1808 Vref/2
FLAG -144 416 2V5
FLAG 1296 -1856 ACS3
FLAG 1568 -2144 2V5
SYMBOL voltage -608 384 R0
WINDOW 123 24 124 Left 2
WINDOW 39 0 0 Left 0
SYMATTR InstName V3
SYMATTR Value 5
SYMBOL voltage -720 384 R0
WINDOW 123 24 124 Left 2
WINDOW 39 0 0 Left 0
SYMATTR InstName V4
SYMATTR Value 2.048
SYMBOL Opamps\\LTC6362 1920 -1808 R0
SYMATTR InstName U1
SYMBOL Allegro\ Current\ Sensors\\ACS72981 192 -1072 R0
SYMATTR InstName U2
SYMBOL voltage -1136 -352 R0
WINDOW 123 24 124 Left 2
WINDOW 39 0 0 Left 0
SYMATTR InstName V7
SYMATTR Value PULSE(0 48 4u 50n 50n 0.95u 40u)
SYMBOL voltage -1136 -496 R0
WINDOW 123 24 124 Left 2
WINDOW 39 0 0 Left 0
SYMATTR InstName V8
SYMATTR Value 0
SYMBOL ind 896 -2080 R0
SYMATTR InstName L1
SYMATTR Value 550µ
SYMATTR SpiceLine Rser=0.25
SYMBOL ind 848 -1952 R90
WINDOW 0 5 56 VBottom 2
WINDOW 3 32 56 VTop 2
SYMATTR InstName L2
SYMATTR Value 450µ
SYMATTR SpiceLine Rser=0.25
SYMBOL ind 928 -1760 R180
WINDOW 0 36 80 Left 2
WINDOW 3 36 40 Left 2
SYMATTR InstName L3
SYMATTR Value 550µ
SYMATTR SpiceLine Rser=0.25
SYMBOL Allegro\ Current\ Sensors\\ACS72981 528 -1296 R0
SYMATTR InstName U3
SYMBOL Allegro\ Current\ Sensors\\ACS72981 816 -1536 R0
SYMATTR InstName U4
SYMATTR SpiceLine Sensitivity=13m Polarity=2 VCC_typ=5
SYMBOL voltage -1136 -688 R0
WINDOW 123 24 124 Left 2
WINDOW 39 0 0 Left 0
SYMATTR InstName V9
SYMATTR Value PULSE(0 -48 25u 50n 50n 0.95u 40u)
SYMBOL voltage -1136 -832 R0
WINDOW 123 24 124 Left 2
WINDOW 39 0 0 Left 0
SYMATTR InstName V10
SYMATTR Value 0
SYMBOL voltage -592 -352 R0
WINDOW 123 24 124 Left 2
WINDOW 39 0 0 Left 0
SYMATTR InstName V1
SYMATTR Value PULSE(0 -48 5u 50n 50n 0.45u 40u)
SYMBOL voltage -592 -496 R0
WINDOW 123 24 124 Left 2
WINDOW 39 0 0 Left 0
SYMATTR InstName V2
SYMATTR Value PULSE(0 48 15u 50n 50n 0.861u 40u)
SYMBOL voltage -592 -688 R0
WINDOW 123 24 124 Left 2
WINDOW 39 0 0 Left 0
SYMATTR InstName V5
SYMATTR Value PULSE(0 48 24.5u 50n 50n 0.45u 40u)
SYMBOL voltage -592 -832 R0
WINDOW 123 24 124 Left 2
WINDOW 39 0 0 Left 0
SYMATTR InstName V6
SYMATTR Value PULSE(0 -48 34.133u 50n 50n 0.817u 40u)
SYMBOL voltage 0 -336 R0
WINDOW 123 24 124 Left 2
WINDOW 39 0 0 Left 0
SYMATTR InstName V11
SYMATTR Value PULSE(0 -48 5u 50n 50n 0.45u 40u)
SYMBOL voltage 0 -480 R0
WINDOW 123 24 124 Left 2
WINDOW 39 0 0 Left 0
SYMATTR InstName V12
SYMATTR Value PULSE(0 -48 14.133u 50n 50n 0.817u 40u)
SYMBOL voltage 0 -672 R0
WINDOW 123 24 124 Left 2
WINDOW 39 0 0 Left 0
SYMATTR InstName V13
SYMATTR Value PULSE(0 48 24.5u 50n 50n 0.45u 40u)
SYMBOL voltage 0 -816 R0
WINDOW 123 24 124 Left 2
WINDOW 39 0 0 Left 0
SYMATTR InstName V14
SYMATTR Value PULSE(0 48 35u 50n 50n 0.816u 40u)
SYMBOL voltage -1136 -160 R0
WINDOW 123 24 124 Left 2
WINDOW 39 0 0 Left 0
SYMATTR InstName V15
SYMATTR Value PULSE(0 48 5u 50n 50n 9.95u 20u)
SYMBOL res 1696 -1872 R90
WINDOW 0 0 56 VBottom 2
WINDOW 3 32 56 VTop 2
SYMATTR InstName R1
SYMATTR Value 1k
SYMBOL res 1696 -1760 R90
WINDOW 0 0 56 VBottom 2
WINDOW 3 32 56 VTop 2
SYMATTR InstName R2
SYMATTR Value 1k
SYMBOL res 2016 -1584 R90
WINDOW 0 0 56 VBottom 2
WINDOW 3 32 56 VTop 2
SYMATTR InstName R3
SYMATTR Value 1k
SYMBOL res 2032 -2080 R90
WINDOW 0 0 56 VBottom 2
WINDOW 3 32 56 VTop 2
SYMATTR InstName R4
SYMATTR Value 1k
SYMBOL res -880 224 R0
SYMATTR InstName R5
SYMATTR Value 10k
SYMBOL res -880 448 R0
SYMATTR InstName R6
SYMATTR Value 10k
SYMBOL res -480 288 R0
SYMATTR InstName R7
SYMATTR Value 10k
SYMBOL res -480 464 R0
SYMATTR InstName R8
SYMATTR Value 10k
SYMBOL cap -304 480 R0
SYMATTR InstName C1
SYMATTR Value 100n
SYMBOL res 1280 -1568 R0
SYMATTR InstName R9
SYMATTR Value 10k
SYMBOL res 1552 -1568 R0
SYMATTR InstName R10
SYMATTR Value 10k
SYMBOL res 1552 -2096 R0
SYMATTR InstName R11
SYMATTR Value 10k
SYMBOL res 1200 -1600 R90
WINDOW 0 0 56 VBottom 2
WINDOW 3 32 56 VTop 2
SYMATTR InstName R12
SYMATTR Value 10k
TEXT -496 632 Left 2 !.tran 500u
