Version 4
SHEET 1 2880 680
WIRE 592 -1104 -608 -1104
WIRE 752 -1104 592 -1104
WIRE 960 -1104 752 -1104
WIRE 1120 -1104 960 -1104
WIRE 176 -784 112 -784
WIRE 352 -784 256 -784
WIRE 1232 -784 352 -784
WIRE 352 -672 352 -784
WIRE 960 -656 960 -1104
WIRE 1120 -560 1120 -1104
WIRE -32 -544 -464 -544
WIRE 112 -544 112 -784
WIRE 112 -544 48 -544
WIRE 176 -544 112 -544
WIRE 352 -544 352 -608
WIRE 352 -544 256 -544
WIRE 1088 -544 352 -544
WIRE 1232 -528 1232 -784
WIRE 1232 -528 1152 -528
WIRE 1328 -528 1232 -528
WIRE 1472 -528 1408 -528
WIRE 1568 -528 1472 -528
WIRE 960 -512 960 -576
WIRE 1088 -512 960 -512
WIRE 960 -416 960 -512
WIRE 112 -400 112 -544
WIRE 1472 -368 1472 -528
WIRE 112 -160 112 -336
WIRE 960 -160 960 -336
WIRE 960 -160 112 -160
WIRE 1120 -160 1120 -496
WIRE 1120 -160 960 -160
WIRE 1472 -160 1472 -304
WIRE 1472 -160 1120 -160
WIRE 192 -32 128 -32
WIRE 368 -32 256 -32
WIRE 864 -32 368 -32
WIRE 368 80 368 -32
WIRE 592 96 592 -1104
WIRE 752 192 752 -1104
WIRE -464 208 -464 -544
WIRE 0 208 -464 208
WIRE 128 208 128 -32
WIRE 128 208 64 208
WIRE 192 208 128 208
WIRE 368 208 368 160
WIRE 368 208 256 208
WIRE 720 208 368 208
WIRE 864 224 864 -32
WIRE 864 224 784 224
WIRE 960 224 864 224
WIRE 1104 224 1040 224
WIRE 1632 224 1104 224
WIRE 592 240 592 176
WIRE 720 240 592 240
WIRE -464 304 -464 208
WIRE 592 336 592 240
WIRE 128 352 128 208
WIRE 1104 384 1104 224
WIRE -608 400 -608 -1104
WIRE -464 464 -464 384
WIRE -608 592 -608 480
WIRE -464 592 -464 544
WIRE -464 592 -608 592
WIRE 128 592 128 432
WIRE 128 592 -464 592
WIRE 592 592 592 416
WIRE 592 592 128 592
WIRE 752 592 752 256
WIRE 752 592 592 592
WIRE 1104 592 1104 448
WIRE 1104 592 752 592
WIRE 1472 592 1472 -160
WIRE 1472 592 1104 592
WIRE -464 608 -464 592
FLAG -464 608 0
FLAG 1632 224 AC_CURRENT
FLAG 1568 -528 DC_CURRENT
SYMBOL voltage -464 448 R0
WINDOW 123 24 124 Left 2
WINDOW 39 0 0 Left 0
SYMATTR InstName V1
SYMATTR Value SINE(1.65 1.5 50)
SYMATTR Value2 AC 1 0
SYMBOL voltage -464 288 R0
WINDOW 123 0 0 Left 0
WINDOW 39 0 0 Left 0
SYMATTR InstName V2
SYMATTR Value PULSE(-0.15 0.15 0 5u 45u 0 50u)
SYMBOL cap 64 192 R90
WINDOW 0 0 32 VBottom 2
WINDOW 3 32 32 VTop 2
SYMATTR InstName C1
SYMATTR Value 100n
SYMBOL cap 256 192 R90
WINDOW 0 0 32 VBottom 2
WINDOW 3 32 32 VTop 2
SYMATTR InstName C2
SYMATTR Value 10n
SYMBOL res 112 336 R0
SYMATTR InstName R1
SYMATTR Value 270
SYMBOL res 384 176 R180
WINDOW 0 36 76 Left 2
WINDOW 3 36 40 Left 2
SYMATTR InstName R2
SYMATTR Value 100k
SYMBOL cap 256 -48 R90
WINDOW 0 0 32 VBottom 2
WINDOW 3 32 32 VTop 2
SYMATTR InstName C3
SYMATTR Value 10n
SYMBOL res 608 192 R180
WINDOW 0 36 76 Left 2
WINDOW 3 36 40 Left 2
SYMATTR InstName R3
SYMATTR Value 11k
SYMBOL res 608 432 R180
WINDOW 0 36 76 Left 2
WINDOW 3 36 40 Left 2
SYMATTR InstName R4
SYMATTR Value 11k
SYMBOL voltage -608 384 R0
WINDOW 123 24 124 Left 2
WINDOW 39 0 0 Left 0
SYMATTR InstName V3
SYMATTR Value 3.3
SYMBOL res 1056 208 R90
WINDOW 0 0 56 VBottom 2
WINDOW 3 32 56 VTop 2
SYMATTR InstName R5
SYMATTR Value 21
SYMBOL cap 1088 384 R0
SYMATTR InstName C4
SYMATTR Value 10n
SYMBOL Opamps\\OP191 752 160 R0
SYMATTR InstName U1
SYMBOL res 976 -560 R180
WINDOW 0 36 76 Left 2
WINDOW 3 36 40 Left 2
SYMATTR InstName R8
SYMATTR Value 11k
SYMBOL res 976 -320 R180
WINDOW 0 36 76 Left 2
WINDOW 3 36 40 Left 2
SYMATTR InstName R9
SYMATTR Value 11k
SYMBOL res 1424 -544 R90
WINDOW 0 0 56 VBottom 2
WINDOW 3 32 56 VTop 2
SYMATTR InstName R10
SYMATTR Value 21
SYMBOL cap 1456 -368 R0
SYMATTR InstName C8
SYMATTR Value 100n
SYMBOL Opamps\\OP191 1120 -592 R0
SYMATTR InstName U2
SYMBOL res 64 -560 R90
WINDOW 0 0 56 VBottom 2
WINDOW 3 32 56 VTop 2
SYMATTR InstName R6
SYMATTR Value 4k7
SYMBOL res 272 -560 R90
WINDOW 0 0 56 VBottom 2
WINDOW 3 32 56 VTop 2
SYMATTR InstName R7
SYMATTR Value 11k
SYMBOL res 272 -800 R90
WINDOW 0 0 56 VBottom 2
WINDOW 3 32 56 VTop 2
SYMATTR InstName R11
SYMATTR Value 4k7
SYMBOL cap 336 -672 R0
SYMATTR InstName C5
SYMATTR Value 100p
SYMBOL cap 96 -400 R0
SYMATTR InstName C6
SYMATTR Value 1n
TEXT -498 632 Left 2 !.tran 0 0.11 0.1
