Version 4
SHEET 1 880 680
WIRE -160 -624 -896 -624
WIRE -144 -624 -160 -624
WIRE -16 -624 -64 -624
WIRE 48 -624 -16 -624
WIRE 352 -624 128 -624
WIRE -160 -464 -160 -624
WIRE -16 -464 -16 -624
WIRE -16 -240 -16 -400
WIRE -16 -240 -64 -240
WIRE -160 -192 -160 -400
WIRE -64 -192 -64 -240
WIRE -896 -112 -896 -624
WIRE -208 -96 -368 -96
WIRE 64 -96 -16 -96
WIRE 176 -96 64 -96
WIRE 176 -32 176 -96
WIRE 352 -32 352 -624
WIRE -208 -16 -272 -16
WIRE -368 48 -368 -96
WIRE -208 48 -368 48
WIRE -112 144 -112 80
WIRE 432 144 -112 144
WIRE -272 176 -272 -16
WIRE 64 176 64 -96
WIRE 64 176 -272 176
WIRE -896 224 -896 -32
WIRE -368 224 -368 48
WIRE -368 224 -896 224
WIRE 80 224 -368 224
WIRE 176 224 176 48
WIRE 176 224 80 224
WIRE 352 224 352 48
WIRE 352 224 176 224
WIRE 80 320 80 224
FLAG 80 320 0
FLAG 432 144 OUT
SYMBOL res -48 -640 R90
WINDOW 0 0 56 VBottom 2
WINDOW 3 32 56 VTop 2
SYMATTR InstName R1
SYMATTR Value 0.2m
SYMBOL ind 144 -640 R90
WINDOW 0 5 56 VBottom 2
WINDOW 3 32 56 VTop 2
SYMATTR InstName L1
SYMATTR Value 500µ
SYMATTR SpiceLine Rser=1
SYMBOL voltage 176 -48 R0
WINDOW 123 0 0 Left 0
WINDOW 39 0 0 Left 0
SYMATTR InstName V1
SYMATTR Value 3.3
SYMBOL voltage -896 -128 R0
WINDOW 123 0 0 Left 0
WINDOW 39 0 0 Left 0
SYMATTR InstName V2
SYMATTR Value PULSE(0 48 0 10n 10n 10u 50u)
SYMBOL voltage 352 -48 R0
WINDOW 123 0 0 Left 0
WINDOW 39 0 0 Left 0
SYMATTR InstName V3
SYMATTR Value SINE(24 24 200)
SYMBOL ZZZ\\OpAmp\\INA240A2 -96 -128 R90
SYMATTR InstName U1
SYMBOL cap -176 -464 R0
SYMATTR InstName C1
SYMATTR Value 100p
SYMBOL cap -32 -464 R0
SYMATTR InstName C2
SYMATTR Value 100p
TEXT -930 344 Left 2 !.tran 500u
