Version 4
SHEET 1 2880 1384
WIRE 912 -2128 -1008 -2128
WIRE 912 -2064 912 -2128
WIRE 752 -1936 -464 -1936
WIRE 912 -1936 912 -1984
WIRE 912 -1936 832 -1936
WIRE 912 -1856 912 -1936
WIRE 912 -1728 912 -1776
WIRE 912 -1728 0 -1728
WIRE 0 -1584 0 -1728
WIRE 736 -1584 0 -1584
WIRE 992 -1520 928 -1520
WIRE 736 -1456 0 -1456
WIRE 1088 -1456 928 -1456
WIRE 992 -1408 992 -1520
WIRE -464 -1344 -464 -1936
WIRE 448 -1344 -464 -1344
WIRE 704 -1280 640 -1280
WIRE 448 -1216 -464 -1216
WIRE 784 -1216 640 -1216
WIRE 704 -1152 704 -1280
WIRE -1008 -1120 -1008 -2128
WIRE 112 -1120 -1008 -1120
WIRE 352 -1056 304 -1056
WIRE 112 -992 -1008 -992
WIRE 480 -992 304 -992
WIRE -1008 -912 -1008 -992
WIRE -464 -912 -464 -1216
WIRE 352 -912 352 -1056
WIRE 0 -896 0 -1456
WIRE -1008 -768 -1008 -832
WIRE -464 -768 -464 -832
WIRE 0 -752 0 -816
WIRE -1008 -624 -1008 -688
WIRE -464 -624 -464 -688
WIRE -464 -624 -1008 -624
WIRE 0 -624 0 -672
WIRE 0 -624 -464 -624
WIRE -1008 -576 -1008 -624
WIRE 752 -464 -608 -464
WIRE 1568 -320 1280 -320
WIRE 128 -192 -720 -192
WIRE 1632 224 976 224
WIRE -720 400 -720 -192
WIRE -608 400 -608 -464
WIRE -720 592 -720 480
WIRE -608 592 -608 480
WIRE -608 592 -720 592
WIRE -464 592 -608 592
WIRE 128 592 -464 592
WIRE -464 608 -464 592
FLAG -464 608 0
FLAG 1632 224 AC_CURRENT
FLAG 1568 -320 DC_CURRENT
FLAG -1008 -576 0
FLAG 1088 -1456 5V
FLAG 784 -1216 5V
FLAG 480 -992 5V
FLAG 352 -912 0
FLAG 704 -1152 0
FLAG 992 -1408 0
SYMBOL voltage -608 384 R0
WINDOW 123 24 124 Left 2
WINDOW 39 0 0 Left 0
SYMATTR InstName V3
SYMATTR Value 5
SYMBOL voltage -720 384 R0
WINDOW 123 24 124 Left 2
WINDOW 39 0 0 Left 0
SYMATTR InstName V4
SYMATTR Value 2.048
SYMBOL Opamps\\LTC6362 592 96 R0
SYMATTR InstName U1
SYMBOL Allegro\ Current\ Sensors\\ACS72981 192 -1072 R0
SYMATTR InstName U2
SYMBOL voltage -464 -784 R0
WINDOW 123 24 124 Left 2
WINDOW 39 0 0 Left 0
SYMATTR InstName V1
SYMATTR Value PULSE(0 48 0 10n 10n 9u 20u)
SYMBOL voltage -464 -928 R0
WINDOW 123 24 124 Left 2
WINDOW 39 0 0 Left 0
SYMATTR InstName V2
SYMATTR Value PULSE(0 48 9u 10n 10n 1u 40u)
SYMBOL voltage 0 -768 R0
WINDOW 123 24 124 Left 2
WINDOW 39 0 0 Left 0
SYMATTR InstName V5
SYMATTR Value PULSE(0 48 0 10n 10n 9u 20u)
SYMBOL voltage 0 -912 R0
WINDOW 123 24 124 Left 2
WINDOW 39 0 0 Left 0
SYMATTR InstName V6
SYMATTR Value PULSE(0 48 9u 10n 10n 1u 40u)
SYMBOL voltage -1008 -784 R0
WINDOW 123 24 124 Left 2
WINDOW 39 0 0 Left 0
SYMATTR InstName V7
SYMATTR Value PULSE(0 48 0 10n 10n 9u 40u)
SYMBOL voltage -1008 -928 R0
WINDOW 123 24 124 Left 2
WINDOW 39 0 0 Left 0
SYMATTR InstName V8
SYMATTR Value PULSE(0 48 20u 10n 10n 11u 40u)
SYMBOL ind 896 -2080 R0
SYMATTR InstName L1
SYMBOL ind 848 -1952 R90
WINDOW 0 5 56 VBottom 2
WINDOW 3 32 56 VTop 2
SYMATTR InstName L2
SYMBOL ind 928 -1760 R180
WINDOW 0 36 80 Left 2
WINDOW 3 36 40 Left 2
SYMATTR InstName L3
SYMBOL Allegro\ Current\ Sensors\\ACS72981 528 -1296 R0
SYMATTR InstName U3
SYMBOL Allegro\ Current\ Sensors\\ACS72981 816 -1536 R0
SYMATTR InstName U4
TEXT -496 632 Left 2 !.tran 0.01
