Version 4
SHEET 1 2880 1384
WIRE 752 -464 -608 -464
WIRE 1120 -464 752 -464
WIRE 1232 -416 1040 -416
WIRE 1120 -352 1120 -464
WIRE 1040 -336 1040 -416
WIRE 1088 -336 1040 -336
WIRE 1232 -320 1232 -416
WIRE 1232 -320 1152 -320
WIRE 1280 -320 1232 -320
WIRE 1568 -320 1280 -320
WIRE 1088 -304 -464 -304
WIRE 128 -192 -720 -192
WIRE 1280 -112 1280 -320
WIRE 1280 -112 -144 -112
WIRE 128 -16 128 -192
WIRE 1120 48 1120 -288
WIRE 1472 48 1120 48
WIRE 640 64 560 64
WIRE 976 64 720 64
WIRE 752 192 752 -464
WIRE -144 208 -144 -112
WIRE 0 208 -144 208
WIRE 128 208 128 64
WIRE 128 208 64 208
WIRE 368 208 128 208
WIRE 560 208 560 64
WIRE 720 208 560 208
WIRE 976 224 976 64
WIRE 976 224 784 224
WIRE 1632 224 976 224
WIRE 368 240 368 208
WIRE 720 240 368 240
WIRE -464 304 -464 -304
WIRE 560 336 560 208
WIRE 128 352 128 208
WIRE -720 400 -720 -192
WIRE -608 400 -608 -464
WIRE -464 464 -464 384
WIRE 560 480 560 416
WIRE -720 592 -720 480
WIRE -608 592 -608 480
WIRE -608 592 -720 592
WIRE -464 592 -464 544
WIRE -464 592 -608 592
WIRE 128 592 128 432
WIRE 128 592 -464 592
WIRE 560 592 560 544
WIRE 560 592 128 592
WIRE 752 592 752 256
WIRE 752 592 560 592
WIRE 1472 592 1472 48
WIRE 1472 592 752 592
WIRE -464 608 -464 592
FLAG -464 608 0
FLAG 1632 224 AC_CURRENT
FLAG 1568 -320 DC_CURRENT
SYMBOL voltage -464 448 R0
WINDOW 123 24 124 Left 2
WINDOW 39 0 0 Left 0
SYMATTR Value2 AC 1 0
SYMATTR InstName V1
SYMATTR Value SINE(1.024 0.7 250)
SYMBOL voltage -464 288 R0
WINDOW 123 0 0 Left 0
WINDOW 39 0 0 Left 0
SYMATTR InstName V2
SYMATTR Value SINE(0 0.002 16k 0 0 0)
SYMBOL cap 64 192 R90
WINDOW 0 0 32 VBottom 2
WINDOW 3 32 32 VTop 2
SYMATTR InstName C1
SYMATTR Value 10n
SYMBOL res 112 336 R0
SYMATTR InstName R1
SYMATTR Value 910
SYMBOL voltage -608 384 R0
WINDOW 123 24 124 Left 2
WINDOW 39 0 0 Left 0
SYMATTR InstName V3
SYMATTR Value 3.3
SYMBOL res 112 -32 R0
SYMATTR InstName R6
SYMATTR Value 910
SYMBOL res 736 48 R90
WINDOW 0 0 56 VBottom 2
WINDOW 3 32 56 VTop 2
SYMATTR InstName R2
SYMATTR Value 630k
SYMBOL res 576 432 R180
WINDOW 0 36 76 Left 2
WINDOW 3 36 40 Left 2
SYMATTR InstName R3
SYMATTR Value 10k
SYMBOL cap 544 480 R0
SYMATTR InstName C2
SYMATTR Value 10n
SYMBOL Opamps\\AD823 752 160 R0
SYMATTR InstName U2
SYMBOL Opamps\\AD823 1120 -384 R0
SYMATTR InstName U3
SYMBOL voltage -720 384 R0
WINDOW 123 24 124 Left 2
WINDOW 39 0 0 Left 0
SYMATTR InstName V4
SYMATTR Value 2.048
TEXT -496 632 Left 2 !.tran 0.01
