Version 4
SHEET 1 2880 1384
WIRE 912 -2128 -1008 -2128
WIRE 912 -2064 912 -2128
WIRE 752 -1936 -464 -1936
WIRE 912 -1936 912 -1984
WIRE 912 -1936 832 -1936
WIRE 912 -1856 912 -1936
WIRE 912 -1728 912 -1776
WIRE 912 -1728 0 -1728
WIRE 0 -1584 0 -1728
WIRE 736 -1584 0 -1584
WIRE 992 -1520 928 -1520
WIRE 736 -1456 0 -1456
WIRE 1088 -1456 928 -1456
WIRE 992 -1408 992 -1520
WIRE -464 -1344 -464 -1936
WIRE 448 -1344 -464 -1344
WIRE 704 -1280 640 -1280
WIRE 448 -1216 -464 -1216
WIRE 784 -1216 640 -1216
WIRE 704 -1152 704 -1280
WIRE -1008 -1120 -1008 -2128
WIRE 112 -1120 -1008 -1120
WIRE 352 -1056 304 -1056
WIRE 112 -992 -1008 -992
WIRE 480 -992 304 -992
WIRE 352 -912 352 -1056
WIRE -1008 -816 -1008 -992
WIRE -464 -816 -464 -1216
WIRE 0 -800 0 -1456
WIRE -1008 -672 -1008 -736
WIRE -464 -672 -464 -736
WIRE 0 -656 0 -720
WIRE -1008 -480 -1008 -592
WIRE -464 -480 -464 -592
WIRE 0 -464 0 -576
WIRE -1008 -336 -1008 -400
WIRE -464 -336 -464 -400
WIRE 0 -320 0 -384
WIRE -1008 -192 -1008 -256
WIRE -464 -192 -464 -256
WIRE -464 -192 -1008 -192
WIRE 0 -192 0 -240
WIRE 0 -192 -464 -192
WIRE -1008 -144 -1008 -192
WIRE -464 176 -720 176
WIRE -464 256 -608 256
WIRE -720 400 -720 176
WIRE -608 400 -608 256
WIRE -720 592 -720 480
WIRE -608 592 -608 480
WIRE -608 592 -720 592
WIRE -464 592 -608 592
WIRE -464 608 -464 592
FLAG -464 608 0
FLAG -1008 -144 0
FLAG 1088 -1456 5V
FLAG 784 -1216 5V
FLAG 480 -992 5V
FLAG 352 -912 0
FLAG 704 -1152 0
FLAG 992 -1408 0
FLAG -464 256 5V
FLAG -464 176 Vref
SYMBOL voltage -608 384 R0
WINDOW 123 24 124 Left 2
WINDOW 39 0 0 Left 0
SYMATTR InstName V3
SYMATTR Value 5
SYMBOL voltage -720 384 R0
WINDOW 123 24 124 Left 2
WINDOW 39 0 0 Left 0
SYMATTR InstName V4
SYMATTR Value 2.048
SYMBOL Opamps\\LTC6362 592 96 R0
SYMATTR InstName U1
SYMBOL Allegro\ Current\ Sensors\\ACS72981 192 -1072 R0
SYMATTR InstName U2
SYMBOL voltage -1008 -352 R0
WINDOW 123 24 124 Left 2
WINDOW 39 0 0 Left 0
SYMATTR InstName V7
SYMATTR Value PULSE(0 48 9u 10n 1u 10u 80u)
SYMBOL voltage -1008 -496 R0
WINDOW 123 24 124 Left 2
WINDOW 39 0 0 Left 0
SYMATTR InstName V8
SYMATTR Value PULSE(0 48 19u 1u 10n 10u 80u)
SYMBOL ind 896 -2080 R0
SYMATTR InstName L1
SYMATTR Value 550µ
SYMATTR SpiceLine Rser=0.25
SYMBOL ind 848 -1952 R90
WINDOW 0 5 56 VBottom 2
WINDOW 3 32 56 VTop 2
SYMATTR InstName L2
SYMATTR Value 450µ
SYMATTR SpiceLine Rser=0.25
SYMBOL ind 928 -1760 R180
WINDOW 0 36 80 Left 2
WINDOW 3 36 40 Left 2
SYMATTR InstName L3
SYMATTR Value 550µ
SYMATTR SpiceLine Rser=0.25
SYMBOL Allegro\ Current\ Sensors\\ACS72981 528 -1296 R0
SYMATTR InstName U3
SYMBOL Allegro\ Current\ Sensors\\ACS72981 816 -1536 R0
SYMATTR InstName U4
SYMBOL voltage -1008 -688 R0
WINDOW 123 24 124 Left 2
WINDOW 39 0 0 Left 0
SYMATTR InstName V9
SYMATTR Value PULSE(0 48 51u 10n 1u 9u 80u)
SYMBOL voltage -1008 -832 R0
WINDOW 123 24 124 Left 2
WINDOW 39 0 0 Left 0
SYMATTR InstName V10
SYMATTR Value PULSE(0 48 60u 1u 10n 10u 80u)
SYMBOL voltage -464 -352 R0
WINDOW 123 24 124 Left 2
WINDOW 39 0 0 Left 0
SYMATTR InstName V1
SYMATTR Value PULSE(0 48 10.5u 10n 1u 8.5u 80u)
SYMBOL voltage -464 -496 R0
WINDOW 123 24 124 Left 2
WINDOW 39 0 0 Left 0
SYMATTR InstName V2
SYMATTR Value PULSE(0 48 19u 1u 10n 10.866u 80u)
SYMBOL voltage -464 -688 R0
WINDOW 123 24 124 Left 2
WINDOW 39 0 0 Left 0
SYMATTR InstName V5
SYMATTR Value PULSE(0 48 49.5u 10n 1u 10.5u 80u)
SYMBOL voltage -464 -832 R0
WINDOW 123 24 124 Left 2
WINDOW 39 0 0 Left 0
SYMATTR InstName V6
SYMATTR Value PULSE(0 48 60u 1u 10n 9.133u 80u)
SYMBOL voltage 0 -336 R0
WINDOW 123 24 124 Left 2
WINDOW 39 0 0 Left 0
SYMATTR InstName V11
SYMATTR Value PULSE(0 48 10.5u 10n 1u 8.5u 80u)
SYMBOL voltage 0 -480 R0
WINDOW 123 24 124 Left 2
WINDOW 39 0 0 Left 0
SYMATTR InstName V12
SYMATTR Value PULSE(0 48 19u 1u 10n 9.133u 80u)
SYMBOL voltage 0 -672 R0
WINDOW 123 24 124 Left 2
WINDOW 39 0 0 Left 0
SYMATTR InstName V13
SYMATTR Value PULSE(0 48 49.5u 10n 1u 10.5u 80u)
SYMBOL voltage 0 -816 R0
WINDOW 123 24 124 Left 2
WINDOW 39 0 0 Left 0
SYMATTR InstName V14
SYMATTR Value PULSE(0 48 60u 1u 10n 10.866u 80u)
TEXT -496 632 Left 2 !.tran 0.0002
