Version 4
SHEET 1 2880 1384
WIRE 592 -1104 -608 -1104
WIRE 752 -1104 592 -1104
WIRE 960 -1104 752 -1104
WIRE 1120 -1104 960 -1104
WIRE 176 -784 112 -784
WIRE 352 -784 256 -784
WIRE 1232 -784 352 -784
WIRE 352 -672 352 -784
WIRE 960 -656 960 -1104
WIRE 1120 -560 1120 -1104
WIRE -32 -544 -464 -544
WIRE 112 -544 112 -784
WIRE 112 -544 48 -544
WIRE 176 -544 112 -544
WIRE 352 -544 352 -608
WIRE 352 -544 256 -544
WIRE 1088 -544 352 -544
WIRE 1232 -528 1232 -784
WIRE 1232 -528 1152 -528
WIRE 1328 -528 1232 -528
WIRE 1472 -528 1408 -528
WIRE 1568 -528 1472 -528
WIRE 960 -512 960 -576
WIRE 1088 -512 960 -512
WIRE 960 -416 960 -512
WIRE 112 -400 112 -544
WIRE 1472 -368 1472 -528
WIRE 112 -160 112 -336
WIRE 960 -160 960 -336
WIRE 960 -160 112 -160
WIRE 1120 -160 1120 -496
WIRE 1120 -160 960 -160
WIRE 1472 -160 1472 -304
WIRE 1472 -160 1120 -160
WIRE 592 -80 592 -1104
WIRE 592 -80 496 -80
WIRE 192 -32 128 -32
WIRE 368 -32 256 -32
WIRE 864 -32 368 -32
WIRE 368 80 368 -32
WIRE 592 96 592 -80
WIRE 752 192 752 -1104
WIRE -464 208 -464 -544
WIRE 0 208 -464 208
WIRE 128 208 128 -32
WIRE 128 208 64 208
WIRE 192 208 128 208
WIRE 368 208 368 160
WIRE 368 208 256 208
WIRE 720 208 368 208
WIRE 864 224 864 -32
WIRE 864 224 784 224
WIRE 960 224 864 224
WIRE 1104 224 1040 224
WIRE 1632 224 1104 224
WIRE 592 240 592 176
WIRE 720 240 592 240
WIRE -464 304 -464 208
WIRE 592 336 592 240
WIRE 128 352 128 208
WIRE 1104 384 1104 224
WIRE -608 400 -608 -1104
WIRE -464 464 -464 384
WIRE -608 592 -608 480
WIRE -464 592 -464 544
WIRE -464 592 -608 592
WIRE 128 592 128 432
WIRE 128 592 -464 592
WIRE 592 592 592 416
WIRE 592 592 128 592
WIRE 752 592 752 256
WIRE 752 592 592 592
WIRE 1104 592 1104 448
WIRE 1104 592 752 592
WIRE 1472 592 1472 -160
WIRE 1472 592 1104 592
WIRE -464 608 -464 592
WIRE 496 672 496 -80
WIRE 592 672 496 672
WIRE 752 672 592 672
WIRE -848 736 -1072 736
WIRE 192 752 128 752
WIRE 368 752 272 752
WIRE 864 752 368 752
WIRE -848 816 -848 736
WIRE 368 864 368 752
WIRE 592 880 592 672
WIRE 752 976 752 672
WIRE -848 992 -848 896
WIRE -672 992 -848 992
WIRE -16 992 -672 992
WIRE 128 992 128 752
WIRE 128 992 64 992
WIRE 192 992 128 992
WIRE 368 992 368 928
WIRE 368 992 272 992
WIRE 720 992 368 992
WIRE 864 1008 864 752
WIRE 864 1008 784 1008
WIRE 960 1008 864 1008
WIRE 1104 1008 1040 1008
WIRE 1632 1008 1104 1008
WIRE 592 1024 592 960
WIRE 720 1024 592 1024
WIRE -1072 1104 -1072 736
WIRE -848 1104 -848 992
WIRE -672 1120 -672 992
WIRE 128 1136 128 992
WIRE 592 1152 592 1024
WIRE 1104 1168 1104 1008
WIRE -1072 1376 -1072 1184
WIRE -848 1376 -848 1184
WIRE -848 1376 -1072 1376
WIRE -672 1376 -672 1184
WIRE -672 1376 -848 1376
WIRE 128 1376 128 1200
WIRE 128 1376 -672 1376
WIRE 592 1376 592 1232
WIRE 592 1376 128 1376
WIRE 752 1376 752 1040
WIRE 752 1376 592 1376
WIRE 1104 1376 1104 1232
WIRE 1104 1376 752 1376
WIRE 1472 1376 1472 592
WIRE 1472 1376 1104 1376
FLAG -464 608 0
FLAG 1632 224 AC_CURRENT
FLAG 1568 -528 DC_CURRENT
FLAG 1632 1008 DC_VOLTAGE
DATAFLAG -352 992 ""
DATAFLAG 1344 1008 ""
SYMBOL voltage -464 448 R0
WINDOW 123 24 124 Left 2
WINDOW 39 0 0 Left 0
SYMATTR Value2 AC 1 0
SYMATTR InstName V1
SYMATTR Value SINE(1.65 1.5 250)
SYMBOL voltage -464 288 R0
WINDOW 123 0 0 Left 0
WINDOW 39 0 0 Left 0
SYMATTR InstName V2
SYMATTR Value PULSE(-0.015 0.015 0 20u 42.5u 0 62.5u)
SYMBOL cap 64 192 R90
WINDOW 0 0 32 VBottom 2
WINDOW 3 32 32 VTop 2
SYMATTR InstName C1
SYMATTR Value 10n
SYMBOL cap 256 192 R90
WINDOW 0 0 32 VBottom 2
WINDOW 3 32 32 VTop 2
SYMATTR InstName C2
SYMATTR Value 100n
SYMBOL res 112 336 R0
SYMATTR InstName R1
SYMATTR Value 510
SYMBOL res 384 176 R180
WINDOW 0 36 76 Left 2
WINDOW 3 36 40 Left 2
SYMATTR InstName R2
SYMATTR Value 100k
SYMBOL cap 256 -48 R90
WINDOW 0 0 32 VBottom 2
WINDOW 3 32 32 VTop 2
SYMATTR InstName C3
SYMATTR Value 100p
SYMBOL res 608 192 R180
WINDOW 0 36 76 Left 2
WINDOW 3 36 40 Left 2
SYMATTR InstName R3
SYMATTR Value 11k
SYMBOL res 608 432 R180
WINDOW 0 36 76 Left 2
WINDOW 3 36 40 Left 2
SYMATTR InstName R4
SYMATTR Value 11k
SYMBOL voltage -608 384 R0
WINDOW 123 24 124 Left 2
WINDOW 39 0 0 Left 0
SYMATTR InstName V3
SYMATTR Value 3.3
SYMBOL res 1056 208 R90
WINDOW 0 0 56 VBottom 2
WINDOW 3 32 56 VTop 2
SYMATTR InstName R5
SYMATTR Value 21
SYMBOL cap 1088 384 R0
SYMATTR InstName C4
SYMATTR Value 100p
SYMBOL res 976 -560 R180
WINDOW 0 36 76 Left 2
WINDOW 3 36 40 Left 2
SYMATTR InstName R8
SYMATTR Value 11k
SYMBOL res 976 -320 R180
WINDOW 0 36 76 Left 2
WINDOW 3 36 40 Left 2
SYMATTR InstName R9
SYMATTR Value 11k
SYMBOL res 1424 -544 R90
WINDOW 0 0 56 VBottom 2
WINDOW 3 32 56 VTop 2
SYMATTR InstName R10
SYMATTR Value 270
SYMBOL cap 1456 -368 R0
SYMATTR InstName C8
SYMATTR Value 100n
SYMBOL Opamps\\OP191 1120 -592 R0
SYMATTR InstName U2
SYMBOL res 64 -560 R90
WINDOW 0 0 56 VBottom 2
WINDOW 3 32 56 VTop 2
SYMATTR InstName R6
SYMATTR Value 4k7
SYMBOL res 272 -560 R90
WINDOW 0 0 56 VBottom 2
WINDOW 3 32 56 VTop 2
SYMATTR InstName R7
SYMATTR Value 47k
SYMBOL res 272 -800 R90
WINDOW 0 0 56 VBottom 2
WINDOW 3 32 56 VTop 2
SYMATTR InstName R11
SYMATTR Value 4k7
SYMBOL cap 336 -672 R0
SYMATTR InstName C5
SYMATTR Value 1n
SYMBOL cap 96 -400 R0
SYMATTR InstName C6
SYMATTR Value 10n
SYMBOL Opamps\\LT6234 752 224 R0
SYMATTR InstName U3
SYMBOL res 608 976 R180
WINDOW 0 36 76 Left 2
WINDOW 3 36 40 Left 2
SYMATTR InstName R14
SYMATTR Value 11k
SYMBOL res 1056 992 R90
WINDOW 0 0 56 VBottom 2
WINDOW 3 32 56 VTop 2
SYMATTR InstName R16
SYMATTR Value 21
SYMBOL cap 1088 1168 R0
SYMATTR InstName C11
SYMATTR Value 100n
SYMBOL Opamps\\LT6234 752 1008 R0
SYMATTR InstName U1
SYMBOL res -864 1088 R0
SYMATTR InstName R17
SYMATTR Value 1k
SYMBOL res -864 800 R0
SYMATTR InstName R18
SYMATTR Value 20k
SYMBOL voltage -1072 1088 R0
WINDOW 123 24 124 Left 2
WINDOW 39 0 0 Left 0
SYMATTR InstName V4
SYMATTR Value 0
SYMBOL cap -688 1120 R0
SYMATTR InstName C12
SYMATTR Value 1n
SYMBOL res 80 976 R90
WINDOW 0 0 56 VBottom 2
WINDOW 3 32 56 VTop 2
SYMATTR InstName R12
SYMATTR Value 4k7
SYMBOL res 288 976 R90
WINDOW 0 0 56 VBottom 2
WINDOW 3 32 56 VTop 2
SYMATTR InstName R13
SYMATTR Value 47k
SYMBOL res 288 736 R90
WINDOW 0 0 56 VBottom 2
WINDOW 3 32 56 VTop 2
SYMATTR InstName R19
SYMATTR Value 4k7
SYMBOL cap 352 864 R0
SYMATTR InstName C7
SYMATTR Value 1n
SYMBOL cap 112 1136 R0
SYMATTR InstName C9
SYMATTR Value 10n
SYMBOL res 608 1248 R180
WINDOW 0 36 76 Left 2
WINDOW 3 36 40 Left 2
SYMATTR InstName R15
SYMATTR Value 11k
TEXT -496 632 Left 2 !.tran 0 0.021 0.02
